<?xml version="1.0" encoding="utf-8"?>
<Project ToolsVersion="4.0" xmlns="http://schemas.microsoft.com/developer/msbuild/2003">
  <PropertyGroup Condition="'$(Configuration)|$(Platform)'=='Release|x64'">
    <LocalDebuggerCommandArguments>-gpu </LocalDebuggerCommandArguments>
    <DebuggerFlavor>WindowsLocalDebugger</DebuggerFlavor>
  </PropertyGroup>
  <PropertyGroup Condition="'$(Configuration)|$(Platform)'=='Debug|x64'">
    <LocalDebuggerCommandArguments>-gpu C:\DualSPhysics_v4.1_Multiphase\DualSPHysics_v4.1_Multiphase_Windows_x64\RUN_DIRECTORY_MULTIPHASE\STILLWATER\Case_Stillwater_out\Case_Stillwater -dirout C:\DualSPhysics_v4.1_Multiphase\DualSPHysics_v4.1_Multiphase_Windows_x64\RUN_DIRECTORY_MULTIPHASE\STILLWATER\Case_Stillwater_out</LocalDebuggerCommandArguments>
    <DebuggerFlavor>WindowsLocalDebugger</DebuggerFlavor>
  </PropertyGroup>
  <PropertyGroup Condition="'$(Configuration)|$(Platform)'=='ReleaseCPU|x64'">
    <LocalDebuggerCommandArguments>-cpu </LocalDebuggerCommandArguments>
    <DebuggerFlavor>WindowsLocalDebugger</DebuggerFlavor>
  </PropertyGroup>
  <PropertyGroup Condition="'$(Configuration)|$(Platform)'=='DebugCPU|x64'">
    <LocalDebuggerCommandArguments>-cpu</LocalDebuggerCommandArguments>
    <DebuggerFlavor>WindowsLocalDebugger</DebuggerFlavor>
  </PropertyGroup>
</Project>